Circuit: * D:\SM_projekt\Projekt_Systemy_Mikroprocesorowe\LTspice_Led_control.asc

Direct Newton iteration for .op point succeeded.

Date: Sat Jan 15 16:51:38 2022
Total elapsed time: 0.740 seconds.

tnom = 27
temp = 27
method = modified trap
totiter = 92983
traniter = 92975
tranpoints = 30921
accept = 24633
rejected = 6288
matrix size = 26
fillins = 0
solver = Alternate
Matrix Compiler1: 1.54 KB object code size  0.3/0.3/[0.2]
Matrix Compiler2: 2.13 KB object code size  0.3/0.4/[0.3]

